REMARK  7 active torsions:
REMARK  status: ('A' for Active; 'I' for Inactive)
REMARK    1  A    between atoms: N_5  and  C_6 
REMARK    2  A    between atoms: C_6  and  C_7 
REMARK    3  A    between atoms: C_10  and  C_13 
REMARK       I    between atoms: C_13  and  N_15 
REMARK    4  A    between atoms: N_15  and  C_16 
REMARK    5  A    between atoms: C_18  and  N_19 
REMARK    6  A    between atoms: N_19  and  C_20 
REMARK    7  A    between atoms: C_24  and  C_26 
ROOT
HETATM    1  C   LIG     1      -7.081  -5.496   2.714  1.00  0.00     0.310 C 
HETATM    2  N   LIG     1      -6.519  -5.529   1.369  1.00  0.00     0.087 N 
HETATM    3  C   LIG     1      -7.517  -5.875   0.345  1.00  0.00     0.302 C 
HETATM    4  C   LIG     1      -8.154  -4.709  -0.453  1.00  0.00     0.303 C 
HETATM    5  N   LIG     1      -7.225  -3.651  -0.908  1.00  0.00     0.096 N 
HETATM    6  C   LIG     1      -6.461  -3.205   0.270  1.00  0.00     0.303 C 
HETATM    7  C   LIG     1      -5.738  -4.323   1.055  1.00  0.00     0.302 C 
ENDROOT
BRANCH   5   8
HETATM    8  C   LIG     1      -6.354  -4.132  -1.993  1.00  0.00     0.311 C 
BRANCH   8   9
HETATM    9  C   LIG     1      -5.421  -3.082  -2.578  1.00  0.00    -0.030 A 
HETATM   10  C   LIG     1      -5.922  -1.886  -3.111  1.00  0.00     0.010 A 
HETATM   11  C   LIG     1      -5.089  -1.019  -3.825  1.00  0.00     0.017 A 
HETATM   12  C   LIG     1      -3.733  -1.329  -4.002  1.00  0.00     0.032 A 
HETATM   13  C   LIG     1      -3.215  -2.487  -3.410  1.00  0.00     0.017 A 
HETATM   14  C   LIG     1      -4.049  -3.350  -2.697  1.00  0.00     0.010 A 
BRANCH  12  15
HETATM   15  C   LIG     1      -2.856  -0.529  -4.898  1.00  0.00     0.256 C 
HETATM   16  O   LIG     1      -1.896  -1.113  -5.421  1.00  0.00    -0.267 OA
HETATM   17  N   LIG     1      -3.201   0.797  -5.070  1.00  0.00    -0.323 N 
HETATM   18  H   LIG     1      -3.962   1.160  -4.516  1.00  0.00     0.169 HD
BRANCH  17  19
HETATM   19  C   LIG     1      -2.551   1.744  -5.890  1.00  0.00     0.037 A 
HETATM   20  C   LIG     1      -1.434   1.449  -6.676  1.00  0.00     0.060 A 
HETATM   21  C   LIG     1      -0.771   2.430  -7.439  1.00  0.00     0.057 A 
HETATM   22  C   LIG     1      -1.319   3.727  -7.465  1.00  0.00    -0.035 A 
HETATM   23  C   LIG     1      -0.794   4.839  -8.328  1.00  0.00     0.050 C 
HETATM   24  C   LIG     1      -2.437   4.024  -6.664  1.00  0.00     0.011 A 
HETATM   25  C   LIG     1      -3.047   3.045  -5.885  1.00  0.00     0.030 A 
BRANCH  21  26
HETATM   26  N   LIG     1       0.392   2.034  -8.122  1.00  0.00    -0.188 N 
HETATM   27  H   LIG     1       0.561   1.038  -8.176  1.00  0.00     0.184 HD
BRANCH  26  28
HETATM   28  C   LIG     1       1.588   2.700  -8.378  1.00  0.00     0.727 A 
HETATM   29  N   LIG     1       2.321   2.231  -9.399  1.00  0.00    -0.075 NA
HETATM   30  C   LIG     1       3.448   2.895  -9.705  1.00  0.00     0.139 A 
HETATM   31  C   LIG     1       3.904   3.973  -8.994  1.00  0.00     0.053 A 
HETATM   32  C   LIG     1       3.126   4.365  -7.925  1.00  0.00     0.089 A 
HETATM   33  N   LIG     1       1.974   3.733  -7.615  1.00  0.00    -0.062 NA
BRANCH  32  34
HETATM   34  C   LIG     1       3.475   5.506  -7.070  1.00  0.00     0.011 A 
HETATM   35  C   LIG     1       3.121   5.546  -5.720  1.00  0.00     0.130 A 
HETATM   36  N   LIG     1       3.413   6.565  -4.871  1.00  0.00    -0.272 NA
HETATM   37  C   LIG     1       4.086   7.611  -5.391  1.00  0.00     0.116 A 
HETATM   38  C   LIG     1       4.483   7.687  -6.713  1.00  0.00     0.020 A 
HETATM   39  C   LIG     1       4.171   6.623  -7.556  1.00  0.00     0.017 A 
ENDBRANCH  32  34
ENDBRANCH  26  28
ENDBRANCH  21  26
ENDBRANCH  17  19
ENDBRANCH  12  15
ENDBRANCH   8   9
ENDBRANCH   5   8
TORSDOF 7
