REMARK  2 active torsions:
REMARK  status: ('A' for Active; 'I' for Inactive)
REMARK    1  A    between atoms: C_4  and  N_7 
REMARK       I    between atoms: N_7  and  C_8 
REMARK    2  A    between atoms: C_8  and  C_10 
ROOT
HETATM    1  C   LIG     1       2.900   3.119  -1.165  1.00  0.00     0.157 A 
HETATM    2  N   LIG     1       2.009   2.863  -2.151  1.00  0.00    -0.168 NA
HETATM    3  N   LIG     1       2.308   3.774  -3.096  1.00  0.00    -0.277 N 
HETATM    4  C   LIG     1       3.350   4.601  -2.779  1.00  0.00     0.062 A 
HETATM    5  C   LIG     1       3.958   5.644  -3.486  1.00  0.00     0.032 A 
HETATM    6  C   LIG     1       5.026   6.298  -2.863  1.00  0.00     0.002 A 
HETATM    7  C   LIG     1       5.457   5.927  -1.590  1.00  0.00     0.001 A 
HETATM    8  C   LIG     1       4.832   4.882  -0.901  1.00  0.00     0.016 A 
HETATM    9  C   LIG     1       3.759   4.204  -1.511  1.00  0.00     0.028 A 
HETATM   10  H   LIG     1       1.761   3.780  -3.949  1.00  0.00     0.189 HD
ENDROOT
BRANCH   1  11
HETATM   11  C   LIG     1       2.926   2.326   0.079  1.00  0.00     0.277 C 
HETATM   12  N   LIG     1       1.974   1.323   0.072  1.00  0.00    -0.322 N 
HETATM   13  H   LIG     1       1.415   1.305  -0.778  1.00  0.00     0.169 HD
HETATM   14  O   LIG     1       3.721   2.566   0.981  1.00  0.00    -0.266 OA
BRANCH  12  15
HETATM   15  C   LIG     1       1.710   0.364   1.063  1.00  0.00     0.035 A 
HETATM   16  C   LIG     1       2.410   0.279   2.269  1.00  0.00     0.029 A 
HETATM   17  C   LIG     1       2.088  -0.705   3.209  1.00  0.00     0.002 A 
HETATM   18  C   LIG     1       1.065  -1.613   2.951  1.00  0.00     0.000 A 
HETATM   19  C   LIG     1       0.362  -1.539   1.752  1.00  0.00     0.002 A 
HETATM   20  C   LIG     1       0.683  -0.555   0.812  1.00  0.00     0.029 A 
ENDBRANCH  12  15
ENDBRANCH   1  11
TORSDOF 2
