REMARK  4 active torsions:
REMARK  status: ('A' for Active; 'I' for Inactive)
REMARK    1  A    between atoms: C_7  and  C_10 
REMARK       I    between atoms: C_10  and  N_12 
REMARK    2  A    between atoms: N_12  and  C_13 
REMARK    3  A    between atoms: C_16  and  S_19 
REMARK    4  A    between atoms: S_19  and  N_22 
ROOT
HETATM    1  C   LIG     1      -0.822  -1.447   0.431  1.00  0.00     0.277 C 
HETATM    2  O   LIG     1      -0.044  -0.704   1.021  1.00  0.00    -0.266 OA
HETATM    3  N   LIG     1      -0.497  -2.640  -0.196  1.00  0.00    -0.322 N 
HETATM    4  H   LIG     1      -1.295  -3.113  -0.614  1.00  0.00     0.169 HD
ENDROOT
BRANCH   3   5
HETATM    5  C   LIG     1       0.768  -3.251  -0.272  1.00  0.00     0.035 A 
HETATM    6  C   LIG     1       1.913  -2.702   0.313  1.00  0.00     0.031 A 
HETATM    7  C   LIG     1       3.140  -3.362   0.248  1.00  0.00     0.027 A 
HETATM    8  C   LIG     1       3.231  -4.584  -0.414  1.00  0.00     0.074 A 
HETATM    9  C   LIG     1       2.104  -5.146  -1.019  1.00  0.00     0.027 A 
HETATM   10  C   LIG     1       0.875  -4.474  -0.949  1.00  0.00     0.031 A 
BRANCH   8  11
HETATM   11  S   LIG     1       4.780  -5.432  -0.441  1.00  0.00     0.239 S 
HETATM   12  O   LIG     1       5.806  -4.581   0.110  1.00  0.00    -0.206 OA
HETATM   13  O   LIG     1       4.569  -6.790   0.008  1.00  0.00    -0.206 OA
BRANCH  11  14
HETATM   14  N   LIG     1       5.122  -5.532  -2.082  1.00  0.00    -0.225 NA
HETATM   15  H   LIG     1       5.975  -5.005  -2.280  1.00  0.00     0.136 HD
HETATM   16  H   LIG     1       5.177  -6.512  -2.359  1.00  0.00     0.136 HD
ENDBRANCH  11  14
ENDBRANCH   8  11
ENDBRANCH   3   5
BRANCH   1  17
HETATM   17  C   LIG     1      -2.257  -1.130   0.334  1.00  0.00     0.157 A 
HETATM   18  C   LIG     1      -2.926   0.004   0.888  1.00  0.00     0.028 A 
HETATM   19  C   LIG     1      -4.260  -0.160   0.539  1.00  0.00     0.062 A 
HETATM   20  C   LIG     1      -2.557   1.137   1.643  1.00  0.00     0.016 A 
HETATM   21  C   LIG     1      -5.262   0.747   0.899  1.00  0.00     0.032 A 
HETATM   22  N   LIG     1      -4.307  -1.329  -0.168  1.00  0.00    -0.277 N 
HETATM   23  C   LIG     1      -4.873   1.870   1.637  1.00  0.00     0.002 A 
HETATM   24  C   LIG     1      -3.542   2.064   2.005  1.00  0.00     0.001 A 
HETATM   25  N   LIG     1      -3.118  -1.941  -0.321  1.00  0.00    -0.168 NA
HETATM   26  H   LIG     1      -5.128  -1.765  -0.572  1.00  0.00     0.189 HD
ENDBRANCH   1  17
TORSDOF 4
